instances/data_GOC/Phase_0_Modified_RTS96/scenario_15/powersystem.raw
 0,  100.000000
rts96_spring_wday.raw / File written by to_psse.gms
5 / 19 / 2015
101, ' 101 ',138,2,1,1,1,1.00,0.00,1.1,0.9,1.1,0.9
102, ' 102 ',138,2,1,1,1,1.00,0.00,1.1,0.9,1.1,0.9
103, ' 103 ',138,1,1,1,1,1.00,0.00,1.1,0.9,1.1,0.9
104, ' 104 ',138,1,1,1,1,1.00,0.00,1.1,0.9,1.1,0.9
105, ' 105 ',138,1,1,1,1,1.00,0.00,1.1,0.9,1.1,0.9
106, ' 106 ',138,1,1,1,1,1.00,0.00,1.1,0.9,1.1,0.9
107, ' 107 ',138,2,1,1,1,1.00,0.00,1.1,0.9,1.1,0.9
108, ' 108 ',138,1,1,1,1,1.00,0.00,1.1,0.9,1.1,0.9
109, ' 109 ',138,1,1,1,1,1.00,0.00,1.1,0.9,1.1,0.9
110, ' 110 ',138,1,1,1,1,1.00,0.00,1.1,0.9,1.1,0.9
111, ' 111 ',230,1,1,1,1,1.00,0.00,1.1,0.9,1.1,0.9
112, ' 112 ',230,1,1,1,1,1.00,0.00,1.1,0.9,1.1,0.9
113, ' 113 ',230,3,1,1,1,1.00,0.00,1.1,0.9,1.1,0.9
114, ' 114 ',230,2,1,1,1,1.00,0.00,1.1,0.9,1.1,0.9
115, ' 115 ',230,2,1,1,1,1.00,0.00,1.1,0.9,1.1,0.9
116, ' 116 ',230,2,1,1,1,1.00,0.00,1.1,0.9,1.1,0.9
117, ' 117 ',230,1,1,1,1,1.00,0.00,1.1,0.9,1.1,0.9
118, ' 118 ',230,2,1,1,1,1.00,0.00,1.1,0.9,1.1,0.9
119, ' 119 ',230,1,1,1,1,1.00,0.00,1.1,0.9,1.1,0.9
120, ' 120 ',230,1,1,1,1,1.00,0.00,1.1,0.9,1.1,0.9
121, ' 121 ',230,2,1,1,1,1.00,0.00,1.1,0.9,1.1,0.9
122, ' 122 ',230,2,1,1,1,1.00,0.00,1.1,0.9,1.1,0.9
123, ' 123 ',230,2,1,1,1,1.00,0.00,1.1,0.9,1.1,0.9
124, ' 124 ',230,1,1,1,1,1.00,0.00,1.1,0.9,1.1,0.9
201, ' 201 ',138,2,1,1,1,1.00,0.00,1.1,0.9,1.1,0.9
202, ' 202 ',138,2,1,1,1,1.00,0.00,1.1,0.9,1.1,0.9
203, ' 203 ',138,1,1,1,1,1.00,0.00,1.1,0.9,1.1,0.9
204, ' 204 ',138,1,1,1,1,1.00,0.00,1.1,0.9,1.1,0.9
205, ' 205 ',138,1,1,1,1,1.00,0.00,1.1,0.9,1.1,0.9
206, ' 206 ',138,1,1,1,1,1.00,0.00,1.1,0.9,1.1,0.9
207, ' 207 ',138,2,1,1,1,1.00,0.00,1.1,0.9,1.1,0.9
208, ' 208 ',138,1,1,1,1,1.00,0.00,1.1,0.9,1.1,0.9
209, ' 209 ',138,1,1,1,1,1.00,0.00,1.1,0.9,1.1,0.9
210, ' 210 ',138,1,1,1,1,1.00,0.00,1.1,0.9,1.1,0.9
211, ' 211 ',230,1,1,1,1,1.00,0.00,1.1,0.9,1.1,0.9
212, ' 212 ',230,1,1,1,1,1.00,0.00,1.1,0.9,1.1,0.9
213, ' 213 ',230,2,1,1,1,1.00,0.00,1.1,0.9,1.1,0.9
214, ' 214 ',230,2,1,1,1,1.00,0.00,1.1,0.9,1.1,0.9
215, ' 215 ',230,2,1,1,1,1.00,0.00,1.1,0.9,1.1,0.9
216, ' 216 ',230,2,1,1,1,1.00,0.00,1.1,0.9,1.1,0.9
217, ' 217 ',230,1,1,1,1,1.00,0.00,1.1,0.9,1.1,0.9
218, ' 218 ',230,2,1,1,1,1.00,0.00,1.1,0.9,1.1,0.9
219, ' 219 ',230,1,1,1,1,1.00,0.00,1.1,0.9,1.1,0.9
220, ' 220 ',230,1,1,1,1,1.00,0.00,1.1,0.9,1.1,0.9
221, ' 221 ',230,2,1,1,1,1.00,0.00,1.1,0.9,1.1,0.9
222, ' 222 ',230,2,1,1,1,1.00,0.00,1.1,0.9,1.1,0.9
223, ' 223 ',230,2,1,1,1,1.00,0.00,1.1,0.9,1.1,0.9
224, ' 224 ',230,1,1,1,1,1.00,0.00,1.1,0.9,1.1,0.9
301, ' 301 ',138,2,1,1,1,1.00,0.00,1.1,0.9,1.1,0.9
302, ' 302 ',138,2,1,1,1,1.00,0.00,1.1,0.9,1.1,0.9
303, ' 303 ',138,1,1,1,1,1.00,0.00,1.1,0.9,1.1,0.9
304, ' 304 ',138,1,1,1,1,1.00,0.00,1.1,0.9,1.1,0.9
305, ' 305 ',138,1,1,1,1,1.00,0.00,1.1,0.9,1.1,0.9
306, ' 306 ',138,1,1,1,1,1.00,0.00,1.1,0.9,1.1,0.9
307, ' 307 ',138,2,1,1,1,1.00,0.00,1.1,0.9,1.1,0.9
308, ' 308 ',138,1,1,1,1,1.00,0.00,1.1,0.9,1.1,0.9
309, ' 309 ',138,1,1,1,1,1.00,0.00,1.1,0.9,1.1,0.9
310, ' 310 ',138,1,1,1,1,1.00,0.00,1.1,0.9,1.1,0.9
311, ' 311 ',230,1,1,1,1,1.00,0.00,1.1,0.9,1.1,0.9
312, ' 312 ',230,1,1,1,1,1.00,0.00,1.1,0.9,1.1,0.9
313, ' 313 ',230,2,1,1,1,1.00,0.00,1.1,0.9,1.1,0.9
314, ' 314 ',230,2,1,1,1,1.00,0.00,1.1,0.9,1.1,0.9
315, ' 315 ',230,2,1,1,1,1.00,0.00,1.1,0.9,1.1,0.9
316, ' 316 ',230,2,1,1,1,1.00,0.00,1.1,0.9,1.1,0.9
317, ' 317 ',230,1,1,1,1,1.00,0.00,1.1,0.9,1.1,0.9
318, ' 318 ',230,2,1,1,1,1.00,0.00,1.1,0.9,1.1,0.9
319, ' 319 ',230,1,1,1,1,1.00,0.00,1.1,0.9,1.1,0.9
320, ' 320 ',230,1,1,1,1,1.00,0.00,1.1,0.9,1.1,0.9
321, ' 321 ',230,2,1,1,1,1.00,0.00,1.1,0.9,1.1,0.9
322, ' 322 ',230,2,1,1,1,1.00,0.00,1.1,0.9,1.1,0.9
323, ' 323 ',230,2,1,1,1,1.00,0.00,1.1,0.9,1.1,0.9
324, ' 324 ',230,1,1,1,1,1.00,0.00,1.1,0.9,1.1,0.9
325, ' 325 ',230,1,1,1,1,1.00,0.00,1.1,0.9,1.1,0.9
0 / END OF BUS DATA, BEGIN LOAD DATA
101, '1 ',1,11,11,61.33289454218186,15.707188380832784,0.0,0.0,0.0,0.0,1,1,0
102, '1 ',1,11,12,78.96796900031632,13.090823389087804,0.0,0.0,0.0,0.0,1,1,0
103, '1 ',1,11,11,151.86247277117704,29.846312723113314,0.0,0.0,0.0,0.0,1,1,0
104, '1 ',1,11,11,38.404891080147024,8.499098267816473,0.0,0.0,0.0,0.0,1,1,0
105, '1 ',1,11,11,54.110074671322906,11.27029284078721,0.0,0.0,0.0,0.0,1,1,0
106, '1 ',1,11,12,108.97379799236657,19.132803252327072,0.0,0.0,0.0,0.0,1,1,0
107, '1 ',1,11,12,93.96892871026648,13.27451828926918,0.0,0.0,0.0,0.0,1,1,0
108, '1 ',1,11,12,85.92300149528626,18.411207772458436,0.0,0.0,0.0,0.0,1,1,0
109, '1 ',1,11,13,128.85052579032842,24.73717258771509,0.0,0.0,0.0,0.0,1,1,0
110, '1 ',1,11,13,134.49566444308357,35.31983869550004,0.0,0.0,0.0,0.0,1,1,0
111, '1 ',1,11,13,0.0,0.0,0.0,0.0,0.0,0.0,1,1,0
112, '1 ',1,11,13,0.0,0.0,0.0,0.0,0.0,0.0,1,1,0
113, '1 ',1,12,14,154.26667141248706,35.07496233793795,0.0,0.0,0.0,0.0,1,1,0
114, '1 ',1,12,16,145.75283042864578,32.682800580213176,0.0,0.0,0.0,0.0,1,1,0
115, '1 ',1,12,16,268.3357527425526,31.983716588205095,0.0,0.0,0.0,0.0,1,1,0
116, '1 ',1,12,16,77.10560833035036,15.588249263433738,0.0,0.0,0.0,0.0,1,1,0
117, '1 ',1,12,17,0.0,0.0,0.0,0.0,0.0,0.0,1,1,0
118, '1 ',1,12,17,266.21794690985615,50.65207854449786,0.0,0.0,0.0,0.0,1,1,0
119, '1 ',1,12,15,103.380802906344,27.40368556264699,0.0,0.0,0.0,0.0,1,1,0
120, '1 ',1,12,15,104.27616829358338,23.205769916254656,0.0,0.0,0.0,0.0,1,1,0
121, '1 ',1,12,17,0.0,0.0,0.0,0.0,0.0,0.0,1,1,0
122, '1 ',1,12,17,0.0,0.0,0.0,0.0,0.0,0.0,1,1,0
123, '1 ',1,12,15,0.0,0.0,0.0,0.0,0.0,0.0,1,1,0
124, '1 ',1,12,16,0.0,0.0,0.0,0.0,0.0,0.0,1,1,0
201, '1 ',1,21,21,77.68269961237125,11.662683630728536,0.0,0.0,0.0,0.0,1,1,0
202, '1 ',1,21,22,54.15029636762682,15.238926393971777,0.0,0.0,0.0,0.0,1,1,0
203, '1 ',1,21,21,134.2433991608983,29.94506180647951,0.0,0.0,0.0,0.0,1,1,0
204, '1 ',1,21,21,58.45181561990585,11.559164328296434,0.0,0.0,0.0,0.0,1,1,0
205, '1 ',1,21,21,40.671575953514505,10.349583856036606,0.0,0.0,0.0,0.0,1,1,0
206, '1 ',1,21,22,104.8106454269126,21.471310597909053,0.0,0.0,0.0,0.0,1,1,0
207, '1 ',1,21,22,66.06937390944803,17.273603945353532,0.0,0.0,0.0,0.0,1,1,0
208, '1 ',1,21,22,148.55071576527538,26.98533547122753,0.0,0.0,0.0,0.0,1,1,0
209, '1 ',1,21,23,128.19952488962446,21.019025485600345,0.0,0.0,0.0,0.0,1,1,0
210, '1 ',1,21,23,119.05120768195715,21.81636294986866,0.0,0.0,0.0,0.0,1,1,0
211, '1 ',1,21,23,0.0,0.0,0.0,0.0,0.0,0.0,1,1,0
212, '1 ',1,21,23,0.0,0.0,0.0,0.0,0.0,0.0,1,1,0
213, '1 ',1,22,24,187.69786572713872,40.545440041921005,0.0,0.0,0.0,0.0,1,1,0
214, '1 ',1,22,26,135.98107738519934,34.29861783371685,0.0,0.0,0.0,0.0,1,1,0
215, '1 ',1,22,26,161.74462847269206,32.0172995959103,0.0,0.0,0.0,0.0,1,1,0
216, '1 ',1,22,26,86.1459147996828,11.862873922336847,0.0,0.0,0.0,0.0,1,1,0
217, '1 ',1,22,27,0.0,0.0,0.0,0.0,0.0,0.0,1,1,0
218, '1 ',1,22,27,193.85701827463083,57.92245837148299,0.0,0.0,0.0,0.0,1,1,0
219, '1 ',1,22,25,150.4708986300086,19.636563636739645,0.0,0.0,0.0,0.0,1,1,0
220, '1 ',1,22,25,110.32091148598194,16.34193332428811,0.0,0.0,0.0,0.0,1,1,0
221, '1 ',1,22,27,0.0,0.0,0.0,0.0,0.0,0.0,1,1,0
222, '1 ',1,22,27,0.0,0.0,0.0,0.0,0.0,0.0,1,1,0
223, '1 ',1,22,25,0.0,0.0,0.0,0.0,0.0,0.0,1,1,0
224, '1 ',1,22,26,0.0,0.0,0.0,0.0,0.0,0.0,1,1,0
301, '1 ',1,31,31,74.10500055005829,17.01742955190316,0.0,0.0,0.0,0.0,1,1,0
302, '1 ',1,31,32,70.22991488843705,13.073311709504575,0.0,0.0,0.0,0.0,1,1,0
303, '1 ',1,31,31,125.57408001543583,28.9969493760257,0.0,0.0,0.0,0.0,1,1,0
304, '1 ',1,31,31,63.080029580321444,9.50433727334789,0.0,0.0,0.0,0.0,1,1,0
305, '1 ',1,31,31,47.66877519303393,10.981458319163696,0.0,0.0,0.0,0.0,1,1,0
306, '1 ',1,31,32,106.61552712750435,24.84222191345785,0.0,0.0,0.0,0.0,1,1,0
307, '1 ',1,31,32,94.0143483809894,21.791432136021324,0.0,0.0,0.0,0.0,1,1,0
308, '1 ',1,31,32,98.0586013094339,24.53061379943881,0.0,0.0,0.0,0.0,1,1,0
309, '1 ',1,31,33,112.16648404419072,29.235748095897588,0.0,0.0,0.0,0.0,1,1,0
310, '1 ',1,31,33,103.07403117782435,34.039390757443385,0.0,0.0,0.0,0.0,1,1,0
311, '1 ',1,31,33,0.0,0.0,0.0,0.0,0.0,0.0,1,1,0
312, '1 ',1,31,33,0.0,0.0,0.0,0.0,0.0,0.0,1,1,0
313, '1 ',1,32,34,179.0001407821763,30.940460630105807,0.0,0.0,0.0,0.0,1,1,0
314, '1 ',1,32,36,116.21985888592154,31.278369030983562,0.0,0.0,0.0,0.0,1,1,0
315, '1 ',1,32,36,261.86970730101416,44.51138736343681,0.0,0.0,0.0,0.0,1,1,0
316, '1 ',1,32,36,65.8443114867434,17.661051705141553,0.0,0.0,0.0,0.0,1,1,0
317, '1 ',1,32,37,0.0,0.0,0.0,0.0,0.0,0.0,1,1,0
318, '1 ',1,32,37,238.69215156008758,56.641969674066836,0.0,0.0,0.0,0.0,1,1,0
319, '1 ',1,32,35,88.4300487839865,20.237942837953657,0.0,0.0,0.0,0.0,1,1,0
320, '1 ',1,32,35,65.93051337370277,18.90972327672467,0.0,0.0,0.0,0.0,1,1,0
321, '1 ',1,32,37,0.0,0.0,0.0,0.0,0.0,0.0,1,1,0
322, '1 ',1,32,37,0.0,0.0,0.0,0.0,0.0,0.0,1,1,0
323, '1 ',1,32,35,0.0,0.0,0.0,0.0,0.0,0.0,1,1,0
324, '1 ',1,32,36,0.0,0.0,0.0,0.0,0.0,0.0,1,1,0
325, '1 ',1,32,35,0.0,0.0,0.0,0.0,0.0,0.0,1,1,0
0 / END OF LOAD DATA, BEGIN FIXED SHUNT DATA
0 / END OF FIXED SHUNT DATA, BEGIN GENERATOR DATA
101,1,10,0,9.576394652482122,1.065645923372358,1.035,0,24,0,1,0,0,1,1,100,15.626951039768755,10.712010210426525,1,1,0,1
101,2,10,0,10.652327216230333,-1.3000494875013828,1.035,0,24,0,1,0,0,1,1,100,19.85791237745434,16.658431779174133,1,1,0,1
101,3,76,14.1,33.70863223867491,-24.515669874846935,1.035,0,89,0,1,0,0,1,1,100,61.336676605418326,60.4169479292339,1,1,0,1
101,4,76,14.1,35.360602176748216,-7.826273270882659,1.035,0,89,0,1,0,0,1,1,100,63.15274546984583,15.23760514650494,1,1,0,1
102,5,10,0,11.911059567704797,-0.19984891964122653,1.035,0,24,0,1,0,0,1,1,100,18.316524545662105,15.331899459725246,1,1,0,1
102,6,10,0,11.614396405871958,0.8269385900348425,1.035,0,24,0,1,0,0,1,1,100,15.827614419162273,11.977038783673198,1,1,0,1
102,7,76,7,33.76246503274888,-23.403364485828206,1.035,0,89,0,1,0,0,1,1,100,82.25208440180869,11.240888507328933,1,1,0,1
102,8,76,7,31.4994164085947,-14.428418135503303,1.035,0,89,0,1,0,0,1,1,100,68.3990044862032,0.4239069658517991,1,1,0,1
107,9,80,17.2,59.468503343872726,7.380929094739258,1.025,0,118,0,1,0,0,1,1,100,90.0804292736575,7.45935900718905,1,1,0,1
107,10,80,17.2,67.29845242481679,-2.7824638187885284,1.025,0,118,0,1,0,0,1,1,100,113.17120088264345,43.27856774558312,1,1,0,1
107,11,80,17.2,64.2645159708336,18.477624001912773,1.025,0,118,0,1,0,0,1,1,100,128.62925551831722,68.09065991896205,1,1,0,1
113,12,95.1,40.7,60.421307664364576,-22.651433899998665,1.02,0,232,0,1,0,0,1,1,100,152.87576438006943,58.01936445859491,1,1,0,1
113,13,95.1,40.7,58.03662883117795,-42.24614059925081,1.02,0,232,0,1,0,0,1,1,100,182.61300828345122,72.82731185452782,1,1,0,1
113,14,95.1,40.7,82.9583422653377,-11.053884074091911,1.02,0,232,0,1,0,0,1,1,100,203.61442747488616,107.83846503530627,1,1,0,1
114,15,0,13.7,257.59279949590564,27.390436704736203,0.98,0,100,0,1,0,0,1,1,100,0.0,0.0,1,1,0,1
115,16,12,0,7.451397211197764,-0.17243673652410507,1.014,0,14,0,1,0,0,1,1,100,11.022375481389464,8.477277669832139,1,1,0,1
115,17,12,0,6.242320372257382,0.35715373568236863,1.014,0,14,0,1,0,0,1,1,100,14.988102946802975,6.8582516735047125,1,1,0,1
115,18,12,0,4.545819849427789,0.04902908848598653,1.014,0,14,0,1,0,0,1,1,100,11.41464928742498,1.7156877588853234,1,1,0,1
115,19,12,0,6.055392978899182,-0.4871510365046561,1.014,0,14,0,1,0,0,1,1,100,14.66705525647849,6.562054692618551,1,1,0,1
115,20,12,0,5.056241501681506,-1.7372658669948589,1.014,0,14,0,1,0,0,1,1,100,9.773168607987463,1.5814273840561501,1,1,0,1
115,21,155,0.05,86.66820145398378,-48.68420427758247,1.014,0,182,0,1,0,0,1,1,100,115.01542708999476,4.120373151020601,1,1,0,1
116,22,155,25.22,82.1281638070941,-45.444446958601475,1.017,0,182,0,1,0,0,1,1,100,125.7627093589399,24.853206012968442,1,1,0,1
118,23,400,137.4,221.45541462115946,-2.3697179579175724,1.05,0,471,0,1,0,0,1,1,100,474.72604436799884,107.12739427108318,1,1,0,1
121,24,400,108.2,247.28542723692954,14.80324566597119,1.05,0,471,0,1,0,0,1,1,100,350.76976438984275,254.55407424996264,1,1,0,1
122,25,50,-4.96,15.731807793676854,-11.897537695989012,1.05,0,53,0,1,0,0,1,1,100,58.93385718809441,21.6328461561352,1,1,0,1
122,26,50,-4.96,17.701856901496647,-0.8424815566278987,1.05,0,53,0,1,0,0,1,1,100,36.1701245023869,25.02440627022837,1,1,0,1
122,27,50,-4.96,12.351703860610723,-9.738338222168387,1.05,0,53,0,1,0,0,1,1,100,41.56053719576448,11.398768521428721,1,1,0,1
122,28,50,-4.96,14.039033987373113,-13.859711388312281,1.05,0,53,0,1,0,0,1,1,100,52.131664275657386,12.750526273157448,1,1,0,1
122,29,50,-4.96,20.3403325162828,1.584414288960403,1.05,0,53,0,1,0,0,1,1,100,36.64705949369817,22.794995944185573,1,1,0,1
122,30,50,-4.96,17.829808273911475,-2.7274371819570646,1.05,0,53,0,1,0,0,1,1,100,63.76444844296203,10.543679462280132,1,1,0,1
123,31,155,31.79,70.1474145911634,-60.4445965141058,1.05,0,182,0,1,0,0,1,1,100,181.99786580889486,103.11240992244566,1,1,0,1
123,32,155,31.79,70.04540490731597,-27.84470947273074,1.05,0,182,0,1,0,0,1,1,100,147.66847281437367,50.878579695674134,1,1,0,1
123,33,350,71.78,147.98143975669518,-78.03454284789044,1.05,0,412,0,1,0,0,1,1,100,409.4726241263561,165.74817364662883,1,1,0,1
201,34,10,0,8.705771490000188,1.5294395866803825,1.035,0,24,0,1,0,0,1,1,100,18.054810292087495,14.68580091056414,1,1,0,1
201,35,10,0,8.08779367338866,-0.9273880678229034,1.035,0,24,0,1,0,0,1,1,100,20.024552706629038,14.656058248737828,1,1,0,1
201,36,76,14.1,32.57438618224114,-10.534054229734465,1.035,0,89,0,1,0,0,1,1,100,66.65533084981143,8.574411753937603,1,1,0,1
201,37,76,14.1,22.773933883756396,-39.62597899790853,1.035,0,89,0,1,0,0,1,1,100,93.25670240279287,41.61207266088576,1,1,0,1
202,38,10,0,7.539996361359953,-2.1698682960122833,1.035,0,24,0,1,0,0,1,1,100,17.488002591766417,13.131286070132628,1,1,0,1
202,39,10,0,10.282093420624733,3.0242758831009278,1.035,0,24,0,1,0,0,1,1,100,21.309646191075444,17.221249140854926,1,1,0,1
202,40,76,7,28.372084280010313,-20.03644157270901,1.035,0,89,0,1,0,0,1,1,100,90.54018073454499,38.92564616858959,1,1,0,1
202,41,76,7,35.97554699052125,-13.503857223549858,1.035,0,89,0,1,0,0,1,1,100,96.73891778383404,19.624554803706715,1,1,0,1
207,42,80,17.2,58.34599716961384,-5.355121065862477,1.025,0,118,0,1,0,0,1,1,100,114.15707506705076,44.8909591010306,1,1,0,1
207,43,80,17.2,57.37142403423786,3.6899050595238805,1.025,0,118,0,1,0,0,1,1,100,96.98412363883108,31.02222534827888,1,1,0,1
207,44,80,17.2,72.70466489531101,23.08258819486948,1.025,0,118,0,1,0,0,1,1,100,115.7405783748254,43.69815877755171,1,1,0,1
213,45,95.1,40.7,98.8446792624891,26.24714341387154,1.02,0,232,0,1,0,0,1,1,100,149.3429589272011,18.750788494232097,1,1,0,1
213,46,95.1,40.7,76.87910858169198,16.526577282696962,1.02,0,232,0,1,0,0,1,1,100,174.77875759275628,16.08412499432214,1,1,0,1
213,47,95.1,40.7,82.12030459940434,-20.63765963539481,1.02,0,232,0,1,0,0,1,1,100,197.3286446541082,35.8896869908948,1,1,0,1
214,48,0,13.68,175.9366868250072,-92.82740584341809,0.98,0,100,0,1,0,0,1,1,100,0.0,0.0,1,1,0,1
215,49,12,0,6.118019855394959,1.07993922047317,1.014,0,14,0,1,0,0,1,1,100,9.777393333613873,4.156749243345914,1,1,0,1
215,50,12,0,6.261037141922862,-1.5238225450739264,1.014,0,14,0,1,0,0,1,1,100,14.430202923528851,6.478851015977563,1,1,0,1
215,51,12,0,4.217626550607383,-2.1012203872203825,1.014,0,14,0,1,0,0,1,1,100,11.717478872649373,4.098046778105202,1,1,0,1
215,52,12,0,6.608035960514098,-0.8665532014332724,1.014,0,14,0,1,0,0,1,1,100,8.593640105053781,1.1045275209099046,1,1,0,1
215,53,12,0,5.968928058631718,1.2932610534131532,1.014,0,14,0,1,0,0,1,1,100,15.070536069385708,7.788204420916737,1,1,0,1
215,54,155,0.048,74.89162878319621,-30.852395437657833,1.014,0,182,0,1,0,0,1,1,100,164.59109391411766,36.82072110453153,1,1,0,1
216,55,155,25.22,56.34003134816885,-48.44922270718962,1.017,0,182,0,1,0,0,1,1,100,122.42489947914144,2.3269307863665603,1,1,0,1
218,56,400,137.4,198.8346637506038,-47.5027271034196,1.05,0,471,0,1,0,0,1,1,100,466.8421761132777,79.86501871608198,1,1,0,1
221,57,400,108.2,144.10763337276876,-180.05273123504594,1.05,0,471,0,1,0,0,1,1,100,399.34302620589733,62.165863225236535,1,1,0,1
222,58,50,-4.96,16.714789710193873,-16.164620761852714,1.05,0,53,0,1,0,0,1,1,100,51.47728766314685,21.668468503194255,1,1,0,1
222,59,50,-4.96,14.026785498857498,-14.508248728420584,1.05,0,53,0,1,0,0,1,1,100,64.69816987402737,16.937049685511738,1,1,0,1
222,60,50,-4.96,17.703347313404084,-14.518069358728827,1.05,0,53,0,1,0,0,1,1,100,40.47816345235333,23.782453391459757,1,1,0,1
222,61,50,-4.96,11.638510800153016,-19.95087114917115,1.05,0,53,0,1,0,0,1,1,100,53.934042586479336,13.862284249999576,1,1,0,1
222,62,50,-4.96,19.347862075269223,-4.376514818333089,1.05,0,53,0,1,0,0,1,1,100,55.10314668994397,18.74211802147329,1,1,0,1
222,63,50,-4.96,17.217967583984137,-3.126468097791072,1.05,0,53,0,1,0,0,1,1,100,38.50947433151305,0.1622226624749601,1,1,0,1
223,64,155,31.79,102.93707159161568,10.56839208258316,1.05,0,182,0,1,0,0,1,1,100,141.58085266291164,36.66822823855328,1,1,0,1
223,65,155,31.79,58.73909643292427,-101.21437170961872,1.05,0,182,0,1,0,0,1,1,100,109.76197885815054,37.75653990744614,1,1,0,1
223,66,350,71.78,173.39314213721082,45.70345935877414,1.05,0,412,0,1,0,0,1,1,100,285.7347891526296,33.57665484864256,1,1,0,1
301,67,10,0,10.339083480648696,2.8572932118549943,1.035,0,24,0,1,0,0,1,1,100,23.915846115909517,20.030591782899574,1,1,0,1
301,68,10,0,9.971561941783875,-1.849148124922067,1.035,0,24,0,1,0,0,1,1,100,25.310777272097766,22.295528791528195,1,1,0,1
301,69,76,14.1,31.089270126074556,-24.523622058099125,1.035,0,89,0,1,0,0,1,1,100,59.08590315580368,8.636478476492261,1,1,0,1
301,70,76,14.1,32.886532929260284,-6.767446595709771,1.035,0,89,0,1,0,0,1,1,100,64.70957225151359,6.763905590400093,1,1,0,1
302,71,10,0,9.890378617681563,-0.18898346135392785,1.035,0,24,0,1,0,0,1,1,100,21.57255371194333,17.41701629976742,1,1,0,1
302,72,10,0,12.707331600133331,2.274551246780904,1.035,0,24,0,1,0,0,1,1,100,24.484268860891465,21.474959177235146,1,1,0,1
302,73,76,7,29.96722168335691,-29.52203386859037,1.035,0,89,0,1,0,0,1,1,100,82.36800056938081,29.72195710096507,1,1,0,1
302,74,76,7,34.44768933020532,-5.819040635367848,1.035,0,89,0,1,0,0,1,1,100,66.39714790545403,18.364518486037845,1,1,0,1
307,75,80,17.2,59.5734389629215,-4.447736855596304,1.025,0,118,0,1,0,0,1,1,100,117.5199848646298,20.263851957861334,1,1,0,1
307,76,80,17.2,74.30085694324225,9.050101811997592,1.025,0,118,0,1,0,0,1,1,100,125.50495746545494,43.26769122388214,1,1,0,1
307,77,80,17.2,48.78717589471489,4.295647365041084,1.025,0,118,0,1,0,0,1,1,100,105.14470820315182,17.41001889691688,1,1,0,1
313,78,95.1,40.7,58.48978042230009,-33.83916836231948,1.02,0,232,0,1,0,0,1,1,100,158.2674231112469,45.953407936247515,1,1,0,1
313,79,95.1,40.7,82.38793220743537,10.757538557052612,1.02,0,232,0,1,0,0,1,1,100,164.81361902714707,55.38862344787921,1,1,0,1
313,80,95.1,40.7,79.74896319583058,12.100123979151249,1.02,0,232,0,1,0,0,1,1,100,169.10187623691743,12.676255224668381,1,1,0,1
314,81,0,13.68,144.6947473846376,-152.8174025658518,0.98,0,100,0,1,0,0,1,1,100,0.0,0.0,1,1,0,1
315,82,12,0,7.096222390886396,1.056499828398227,1.014,0,14,0,1,0,0,1,1,100,10.48638154529035,1.7599617704004036,1,1,0,1
315,83,12,0,5.170423346478492,-2.1979266428388664,1.014,0,14,0,1,0,0,1,1,100,9.81877822447568,7.503370195074695,1,1,0,1
315,84,12,0,4.634184912778437,0.34597608642652666,1.014,0,14,0,1,0,0,1,1,100,11.30272146128118,2.638388912156225,1,1,0,1
315,85,12,0,4.296633736230433,0.05154987797141075,1.014,0,14,0,1,0,0,1,1,100,10.61166817881167,0.5110402940958743,1,1,0,1
315,86,12,0,5.600457322876901,-1.4123132717795661,1.014,0,14,0,1,0,0,1,1,100,15.329944527894257,3.5269305279850958,1,1,0,1
315,87,155,0.048,66.15686567127705,-94.89306145114824,1.014,0,182,0,1,0,0,1,1,100,138.3054955843836,17.16537070980992,1,1,0,1
316,88,155,25.22,102.56930390000343,10.526580936741098,1.017,0,182,0,1,0,0,1,1,100,128.27555211563595,30.75809209145372,1,1,0,1
318,89,400,137.4,151.88602331094444,-129.05830501345918,1.05,0,471,0,1,0,0,1,1,100,386.00278697907925,10.029925699345767,1,1,0,1
321,90,400,108.2,206.4385802671313,-30.9781909384765,1.05,0,471,0,1,0,0,1,1,100,474.2564898170531,213.0078017897904,1,1,0,1
322,91,50,-4.96,20.792569988220933,-3.295705003105102,1.05,0,53,0,1,0,0,1,1,100,60.85968089988456,9.994195655453964,1,1,0,1
322,92,50,-4.96,17.31392217874527,-16.05849630115554,1.05,0,53,0,1,0,0,1,1,100,42.26770487846807,5.521919180173427,1,1,0,1
322,93,50,-4.96,13.616571905463934,-19.428369897883385,1.05,0,53,0,1,0,0,1,1,100,63.04292323766276,24.47296628030017,1,1,0,1
322,94,50,-4.96,20.6470053717494,-9.413697858992965,1.05,0,53,0,1,0,0,1,1,100,55.3680029278621,9.893102890346192,1,1,0,1
322,95,50,-4.96,17.60059973374009,-3.9438759936951087,1.05,0,53,0,1,0,0,1,1,100,47.78194669634104,47.584644369072265,1,1,0,1
322,96,50,-4.96,13.59067901968956,-5.967300100903955,1.05,0,53,0,1,0,0,1,1,100,37.81946457223967,32.537405639697646,1,1,0,1
323,97,155,31.79,78.69564014673233,-30.09070870652795,1.05,0,182,0,1,0,0,1,1,100,143.99145076586865,32.10400084613356,1,1,0,1
323,98,155,31.79,103.38224755600095,-35.225408338941634,1.05,0,182,0,1,0,0,1,1,100,194.36082318006083,109.58200513533085,1,1,0,1
323,99,350,71.78,136.2501631770283,-26.074967354070395,1.05,0,412,0,1,0,0,1,1,100,438.0497106653638,282.6810701205395,1,1,0,1
0 / END OF GENERATOR DATA, BEGIN BRANCH DATA
101,102,1,0.003,0.014,0.461,210.0,231.6,240.0,0,0,0,0,1,1,0,1,1
101,103,1,0.055,0.211,0.057,210.0,249.6,264.0,0,0,0,0,1,1,0,1,1
101,105,1,0.022,0.085,0.023,210.0,249.6,264.0,0,0,0,0,1,1,0,1,1
102,104,1,0.033,0.127,0.034,210.0,249.6,264.0,0,0,0,0,1,1,0,1,1
102,106,1,0.05,0.192,0.052,210.0,249.6,264.0,0,0,0,0,1,1,0,1,1
103,109,1,0.031,0.119,0.032,210.0,249.6,264.0,0,0,0,0,1,1,0,1,1
104,109,1,0.027,0.104,0.028,210.0,249.6,264.0,0,0,0,0,1,1,0,1,1
105,110,1,0.023,0.088,0.024,210.0,249.6,264.0,0,0,0,0,1,1,0,1,1
106,110,1,0.014,0.061,2.459,210.0,231.6,240.0,0,0,0,0,1,1,0,1,1
107,108,1,0.016,0.061,0.017,210.0,249.6,264.0,0,0,0,0,1,1,0,1,1
107,203,1,0.042,0.161,0.044,210.0,249.6,264.0,0,0,0,0,1,1,0,1,1
108,109,1,0.043,0.165,0.045,210.0,249.6,264.0,0,0,0,0,1,1,0,1,1
108,110,1,0.043,0.165,0.045,210.0,249.6,264.0,0,0,0,0,1,1,0,1,1
111,113,1,0.006,0.048,0.1,600.0,720.0,750.0,0,0,0,0,1,1,0,1,1
111,114,1,0.005,0.042,0.088,600.0,720.0,750.0,0,0,0,0,1,1,0,1,1
112,113,1,0.006,0.048,0.1,600.0,720.0,750.0,0,0,0,0,1,1,0,1,1
112,123,1,0.012,0.097,0.203,600.0,720.0,750.0,0,0,0,0,1,1,0,1,1
113,123,1,0.011,0.087,0.182,600.0,720.0,750.0,0,0,0,0,1,1,0,1,1
113,215,1,0.01,0.075,0.158,600.0,720.0,750.0,0,0,0,0,1,1,0,1,1
114,116,1,0.005,0.059,0.082,600.0,720.0,750.0,0,0,0,0,1,1,0,1,1
115,116,1,0.002,0.017,0.036,600.0,720.0,750.0,0,0,0,0,1,1,0,1,1
115,121,1,0.006,0.049,0.103,600.0,720.0,750.0,0,0,0,0,1,1,0,1,1
115,121,2,0.006,0.049,0.103,600.0,720.0,750.0,0,0,0,0,1,1,0,1,1
115,124,1,0.007,0.052,0.109,600.0,720.0,750.0,0,0,0,0,1,1,0,1,1
116,117,1,0.003,0.026,0.055,600.0,720.0,750.0,0,0,0,0,1,1,0,1,1
116,119,1,0.003,0.023,0.049,600.0,720.0,750.0,0,0,0,0,1,1,0,1,1
117,118,1,0.002,0.014,0.03,600.0,720.0,750.0,0,0,0,0,1,1,0,1,1
117,122,1,0.014,0.105,0.221,600.0,720.0,750.0,0,0,0,0,1,1,0,1,1
118,121,1,0.003,0.026,0.055,600.0,720.0,750.0,0,0,0,0,1,1,0,1,1
118,121,2,0.003,0.026,0.055,600.0,720.0,750.0,0,0,0,0,1,1,0,1,1
119,120,1,0.005,0.04,0.083,600.0,720.0,750.0,0,0,0,0,1,1,0,1,1
119,120,2,0.005,0.04,0.083,600.0,720.0,750.0,0,0,0,0,1,1,0,1,1
120,123,1,0.003,0.022,0.046,600.0,720.0,750.0,0,0,0,0,1,1,0,1,1
120,123,2,0.003,0.022,0.046,600.0,720.0,750.0,0,0,0,0,1,1,0,1,1
121,122,1,0.009,0.068,0.142,600.0,720.0,750.0,0,0,0,0,1,1,0,1,1
123,217,1,0.01,0.074,0.155,600.0,720.0,750.0,0,0,0,0,1,1,0,1,1
201,202,1,0.003,0.014,0.461,210.0,231.6,240.0,0,0,0,0,1,1,0,1,1
201,203,1,0.055,0.211,0.057,210.0,249.6,264.0,0,0,0,0,1,1,0,1,1
201,205,1,0.022,0.085,0.023,210.0,249.6,264.0,0,0,0,0,1,1,0,1,1
202,204,1,0.033,0.127,0.034,210.0,249.6,264.0,0,0,0,0,1,1,0,1,1
202,206,1,0.05,0.192,0.052,210.0,249.6,264.0,0,0,0,0,1,1,0,1,1
203,209,1,0.031,0.119,0.032,210.0,249.6,264.0,0,0,0,0,1,1,0,1,1
204,209,1,0.027,0.104,0.028,210.0,249.6,264.0,0,0,0,0,1,1,0,1,1
205,210,1,0.023,0.088,0.024,210.0,249.6,264.0,0,0,0,0,1,1,0,1,1
206,210,1,0.014,0.061,2.459,210.0,231.6,240.0,0,0,0,0,1,1,0,1,1
207,208,1,0.016,0.061,0.017,210.0,249.6,264.0,0,0,0,0,1,1,0,1,1
208,209,1,0.043,0.165,0.045,210.0,249.6,264.0,0,0,0,0,1,1,0,1,1
208,210,1,0.043,0.165,0.045,210.0,249.6,264.0,0,0,0,0,1,1,0,1,1
211,213,1,0.006,0.048,0.1,600.0,720.0,750.0,0,0,0,0,1,1,0,1,1
211,214,1,0.005,0.042,0.088,600.0,720.0,750.0,0,0,0,0,1,1,0,1,1
212,213,1,0.006,0.048,0.1,600.0,720.0,750.0,0,0,0,0,1,1,0,1,1
212,223,1,0.012,0.097,0.203,600.0,720.0,750.0,0,0,0,0,1,1,0,1,1
213,223,1,0.011,0.087,0.182,600.0,720.0,750.0,0,0,0,0,1,1,0,1,1
214,216,1,0.005,0.059,0.082,600.0,720.0,750.0,0,0,0,0,1,1,0,1,1
215,216,1,0.002,0.017,0.036,600.0,720.0,750.0,0,0,0,0,1,1,0,1,1
215,221,1,0.006,0.049,0.103,600.0,720.0,750.0,0,0,0,0,1,1,0,1,1
215,221,2,0.006,0.049,0.103,600.0,720.0,750.0,0,0,0,0,1,1,0,1,1
215,224,1,0.007,0.052,0.109,600.0,720.0,750.0,0,0,0,0,1,1,0,1,1
216,217,1,0.003,0.026,0.055,600.0,720.0,750.0,0,0,0,0,1,1,0,1,1
216,219,1,0.003,0.023,0.049,600.0,720.0,750.0,0,0,0,0,1,1,0,1,1
217,218,1,0.002,0.014,0.03,600.0,720.0,750.0,0,0,0,0,1,1,0,1,1
217,222,1,0.014,0.105,0.221,600.0,720.0,750.0,0,0,0,0,1,1,0,1,1
218,221,1,0.003,0.026,0.055,600.0,720.0,750.0,0,0,0,0,1,1,0,1,1
218,221,2,0.003,0.026,0.055,600.0,720.0,750.0,0,0,0,0,1,1,0,1,1
219,220,1,0.005,0.04,0.083,600.0,720.0,750.0,0,0,0,0,1,1,0,1,1
219,220,2,0.005,0.04,0.083,600.0,720.0,750.0,0,0,0,0,1,1,0,1,1
220,223,1,0.003,0.022,0.046,600.0,720.0,750.0,0,0,0,0,1,1,0,1,1
220,223,2,0.003,0.022,0.046,600.0,720.0,750.0,0,0,0,0,1,1,0,1,1
221,222,1,0.009,0.068,0.142,600.0,720.0,750.0,0,0,0,0,1,1,0,1,1
301,302,1,0.003,0.014,0.461,210.0,231.6,240.0,0,0,0,0,1,1,0,1,1
301,303,1,0.055,0.211,0.057,210.0,249.6,264.0,0,0,0,0,1,1,0,1,1
301,305,1,0.022,0.085,0.023,210.0,249.6,264.0,0,0,0,0,1,1,0,1,1
302,304,1,0.033,0.127,0.034,210.0,249.6,264.0,0,0,0,0,1,1,0,1,1
302,306,1,0.05,0.192,0.052,210.0,249.6,264.0,0,0,0,0,1,1,0,1,1
303,309,1,0.031,0.119,0.032,210.0,249.6,264.0,0,0,0,0,1,1,0,1,1
304,309,1,0.027,0.104,0.028,210.0,249.6,264.0,0,0,0,0,1,1,0,1,1
305,310,1,0.023,0.088,0.024,210.0,249.6,264.0,0,0,0,0,1,1,0,1,1
306,310,1,0.014,0.061,2.459,210.0,231.6,240.0,0,0,0,0,1,1,0,1,1
307,308,1,0.016,0.061,0.017,210.0,249.6,264.0,0,0,0,0,1,1,0,1,1
308,309,1,0.043,0.165,0.045,210.0,249.6,264.0,0,0,0,0,1,1,0,1,1
308,310,1,0.043,0.165,0.045,210.0,249.6,264.0,0,0,0,0,1,1,0,1,1
311,313,1,0.006,0.048,0.1,600.0,720.0,750.0,0,0,0,0,1,1,0,1,1
311,314,1,0.005,0.042,0.088,600.0,720.0,750.0,0,0,0,0,1,1,0,1,1
312,313,1,0.006,0.048,0.1,600.0,720.0,750.0,0,0,0,0,1,1,0,1,1
312,323,1,0.012,0.097,0.203,600.0,720.0,750.0,0,0,0,0,1,1,0,1,1
313,323,1,0.011,0.087,0.182,600.0,720.0,750.0,0,0,0,0,1,1,0,1,1
314,316,1,0.005,0.059,0.082,600.0,720.0,750.0,0,0,0,0,1,1,0,1,1
315,316,1,0.002,0.017,0.036,600.0,720.0,750.0,0,0,0,0,1,1,0,1,1
315,321,1,0.006,0.049,0.103,600.0,720.0,750.0,0,0,0,0,1,1,0,1,1
315,321,2,0.006,0.049,0.103,600.0,720.0,750.0,0,0,0,0,1,1,0,1,1
315,324,1,0.007,0.052,0.109,600.0,720.0,750.0,0,0,0,0,1,1,0,1,1
316,317,1,0.003,0.026,0.055,600.0,720.0,750.0,0,0,0,0,1,1,0,1,1
316,319,1,0.003,0.023,0.049,600.0,720.0,750.0,0,0,0,0,1,1,0,1,1
317,318,1,0.002,0.014,0.03,600.0,720.0,750.0,0,0,0,0,1,1,0,1,1
317,322,1,0.014,0.105,0.221,600.0,720.0,750.0,0,0,0,0,1,1,0,1,1
318,223,1,0.013,0.104,0.218,600.0,720.0,750.0,0,0,0,0,1,1,0,1,1
318,321,1,0.003,0.026,0.055,600.0,720.0,750.0,0,0,0,0,1,1,0,1,1
318,321,2,0.003,0.026,0.055,600.0,720.0,750.0,0,0,0,0,1,1,0,1,1
319,320,1,0.005,0.04,0.083,600.0,720.0,750.0,0,0,0,0,1,1,0,1,1
319,320,2,0.005,0.04,0.083,600.0,720.0,750.0,0,0,0,0,1,1,0,1,1
320,323,1,0.003,0.022,0.046,600.0,720.0,750.0,0,0,0,0,1,1,0,1,1
320,323,2,0.003,0.022,0.046,600.0,720.0,750.0,0,0,0,0,1,1,0,1,1
321,322,1,0.009,0.068,0.142,600.0,720.0,750.0,0,0,0,0,1,1,0,1,1
323,325,1,0,0.009,0,866.4,1071.6,1071.6,0,0,0,0,1,1,0,1,1
0 / END OF BRANCH DATA, BEGIN TRANSFORMER DATA
  103 ,  124 , 0,  1 , 1, 1, 1, 0, 0, 2, '            ',  1 , 1, 1
   0.002000 ,  0.084000 ,  100.000000
   1.015000 , 0,  0.000000 ,  400.000000 ,  510.000000 ,  600.000000 , 0, 0,  1.10 ,  0.90 ,  1.10 ,  0.90 , 33, 0, 0, 0
   1.000000, 0
  109 ,  111 , 0,  1 , 1, 1, 1, 0, 0, 2, '            ',  1 , 1, 1
   0.002000 ,  0.084000 ,  100.000000
   1.030000 , 0,  0.000000 ,  400.000000 ,  510.000000 ,  600.000000 , 0, 0,  1.10 ,  0.90 ,  1.10 ,  0.90 , 33, 0, 0, 0
   1.000000, 0
  109 ,  112 , 0,  1 , 1, 1, 1, 0, 0, 2, '            ',  1 , 1, 1
   0.002000 ,  0.084000 ,  100.000000
   1.030000 , 0,  0.000000 ,  400.000000 ,  510.000000 ,  600.000000 , 0, 0,  1.10 ,  0.90 ,  1.10 ,  0.90 , 33, 0, 0, 0
   1.000000, 0
  110 ,  111 , 0,  1 , 1, 1, 1, 0, 0, 2, '            ',  1 , 1, 1
   0.002000 ,  0.084000 ,  100.000000
   1.015000 , 0,  0.000000 ,  400.000000 ,  510.000000 ,  600.000000 , 0, 0,  1.10 ,  0.90 ,  1.10 ,  0.90 , 33, 0, 0, 0
   1.000000, 0
  110 ,  112 , 0,  1 , 1, 1, 1, 0, 0, 2, '            ',  1 , 1, 1
   0.002000 ,  0.084000 ,  100.000000
   1.015000 , 0,  0.000000 ,  400.000000 ,  510.000000 ,  600.000000 , 0, 0,  1.10 ,  0.90 ,  1.10 ,  0.90 , 33, 0, 0, 0
   1.000000, 0
  203 ,  224 , 0,  1 , 1, 1, 1, 0, 0, 2, '            ',  1 , 1, 1
   0.002000 ,  0.084000 ,  100.000000
   1.015000 , 0,  0.000000 ,  400.000000 ,  510.000000 ,  600.000000 , 0, 0,  1.10 ,  0.90 ,  1.10 ,  0.90 , 33, 0, 0, 0
   1.000000, 0
  209 ,  211 , 0,  1 , 1, 1, 1, 0, 0, 2, '            ',  1 , 1, 1
   0.002000 ,  0.084000 ,  100.000000
   1.030000 , 0,  0.000000 ,  400.000000 ,  510.000000 ,  600.000000 , 0, 0,  1.10 ,  0.90 ,  1.10 ,  0.90 , 33, 0, 0, 0
   1.000000, 0
  209 ,  212 , 0,  1 , 1, 1, 1, 0, 0, 2, '            ',  1 , 1, 1
   0.002000 ,  0.084000 ,  100.000000
   1.030000 , 0,  0.000000 ,  400.000000 ,  510.000000 ,  600.000000 , 0, 0,  1.10 ,  0.90 ,  1.10 ,  0.90 , 33, 0, 0, 0
   1.000000, 0
  210 ,  211 , 0,  1 , 1, 1, 1, 0, 0, 2, '            ',  1 , 1, 1
   0.002000 ,  0.084000 ,  100.000000
   1.015000 , 0,  0.000000 ,  400.000000 ,  510.000000 ,  600.000000 , 0, 0,  1.10 ,  0.90 ,  1.10 ,  0.90 , 33, 0, 0, 0
   1.000000, 0
  210 ,  212 , 0,  1 , 1, 1, 1, 0, 0, 2, '            ',  1 , 1, 1
   0.002000 ,  0.084000 ,  100.000000
   1.015000 , 0,  0.000000 ,  400.000000 ,  510.000000 ,  600.000000 , 0, 0,  1.10 ,  0.90 ,  1.10 ,  0.90 , 33, 0, 0, 0
   1.000000, 0
  303 ,  324 , 0,  1 , 1, 1, 1, 0, 0, 2, '            ',  1 , 1, 1
   0.002000 ,  0.084000 ,  100.000000
   1.015000 , 0,  0.000000 ,  400.000000 ,  510.000000 ,  600.000000 , 0, 0,  1.10 ,  0.90 ,  1.10 ,  0.90 , 33, 0, 0, 0
   1.000000, 0
  309 ,  311 , 0,  1 , 1, 1, 1, 0, 0, 2, '            ',  1 , 1, 1
   0.002000 ,  0.084000 ,  100.000000
   1.030000 , 0,  0.000000 ,  400.000000 ,  510.000000 ,  600.000000 , 0, 0,  1.10 ,  0.90 ,  1.10 ,  0.90 , 33, 0, 0, 0
   1.000000, 0
  309 ,  312 , 0,  1 , 1, 1, 1, 0, 0, 2, '            ',  1 , 1, 1
   0.002000 ,  0.084000 ,  100.000000
   1.030000 , 0,  0.000000 ,  400.000000 ,  510.000000 ,  600.000000 , 0, 0,  1.10 ,  0.90 ,  1.10 ,  0.90 , 33, 0, 0, 0
   1.000000, 0
  310 ,  311 , 0,  1 , 1, 1, 1, 0, 0, 2, '            ',  1 , 1, 1
   0.002000 ,  0.084000 ,  100.000000
   1.015000 , 0,  0.000000 ,  400.000000 ,  510.000000 ,  600.000000 , 0, 0,  1.10 ,  0.90 ,  1.10 ,  0.90 , 33, 0, 0, 0
   1.000000, 0
  310 ,  312 , 0,  1 , 1, 1, 1, 0, 0, 2, '            ',  1 , 1, 1
   0.002000 ,  0.084000 ,  100.000000
   1.015000 , 0,  0.000000 ,  400.000000 ,  510.000000 ,  600.000000 , 0, 0,  1.10 ,  0.90 ,  1.10 ,  0.90 , 33, 0, 0, 0
   1.000000, 0
0 / END OF TRANSFORMER DATA, BEGIN AREA DATA
0 / END OF AREA DATA, BEGIN TWO-TERMINAL DC DATA
0 / END OF TWO-TERMINAL DC DATA, BEGIN VSC DC LINE DATA
0 / END OF VSC DC LINE DATA, BEGIN SWITCHED SHUNT DATA
0 / END OF SWITCHED SHUNT DATA, BEGIN IMPEDANCE CORRECTION DATA
0 / END OF IMPEDANCE CORRECTION DATA, BEGIN MULTI-TERMINAL DC DATA
0 / END OF MULTI-TERMINAL DC DATA, BEGIN MULTI-SECTION LINE DATA
0 / END OF MULTI-SECTION LINE DATA, BEGIN ZONE DATA
0 / END OF ZONE DATA, BEGIN INTER-AREA TRANSFER DATA
0 / END OF INTER-AREA TRANSFER DATA, BEGIN OWNER DATA
0 / END OF OWNER DATA, BEGIN FACTS CONTROL DEVICE DATA
0 / END OF FACTS CONTROL DEVICE DATA
0 / END OF SWITCHED SHUNT DATA, BEGIN GNE DATA
0 / END OF GNE DATA, BEGIN INDUCTION MACHINE DATA
0 / END OF INDUCTION MACHINE DATA
Q 
